Circuit: *AE01.02.03.003sim01

Instance "m:u1:drv": Length shorter than recommended for a level 1 MOSFET.
Instance "m:u1:52:4": Length shorter than recommended for a level 1 MOSFET.
Instance "m:u1:7": Length shorter than recommended for a level 1 MOSFET.
Instance "m:u1:6": Length shorter than recommended for a level 1 MOSFET.
Instance "m:u1:3": Length shorter than recommended for a level 1 MOSFET.
Instance "m:u1:1:7": Length shorter than recommended for a level 1 MOSFET.
Instance "m:u1:1:6": Length shorter than recommended for a level 1 MOSFET.
Ignoring empty pin current: Ix(u1:nc)
Direct Newton iteration failed to find .op point.  (Use ".option noopiter" to skip.)
Starting Gmin stepping
Gmin = 10
Gmin = 1.07374
Gmin = 0.115292
Gmin = 0.0123794
Gmin = 0.00132923
Gmin = 0.000142725
Gmin = 1.5325e-005
Gmin = 1.6455e-006
Gmin = 1.76685e-007
Gmin = 1.89714e-008
Gmin = 2.03704e-009
Gmin = 2.18725e-010
vernier = 0.5
vernier = 0.25
Gmin = 4.587e-011
vernier = 0.125
vernier = 0.0625
vernier = 0.03125
vernier = 0.015625
vernier = 0.0078125
vernier = 0.00390625
vernier = 0.00195313
vernier = 0.000976563
vernier = 0.000488281
Gmin = 0
Gmin = 0
Gmin stepping failed

Starting source stepping with srcstepmethod=0
Source Step = 3.0303%
Source Step = 33.3333%
Source Step = 63.6364%
Source Step = 93.9394%
Source stepping succeeded in finding the operating point.

Direct Newton iteration failed to find .op point.  (Use ".option noopiter" to skip.)
Starting Gmin stepping
Gmin = 10
Gmin = 1.07374
Gmin = 0.115292
Gmin = 0.0123794
Gmin = 0.00132923
Gmin = 0.000142725
Gmin = 1.5325e-005
Gmin = 1.6455e-006
Gmin = 1.76685e-007
Gmin = 1.89714e-008
Gmin = 2.03704e-009
Gmin = 2.18725e-010
vernier = 0.5
Gmin = 6.2145e-011
vernier = 0.666667
vernier = 0.888888
Gmin = 1.1044e-011
vernier = 1
Gmin = 1.24035e-012
Gmin = 1.33182e-013
Gmin = 0
Gmin stepping succeeded in finding the operating point.

Direct Newton iteration failed to find .op point.  (Use ".option noopiter" to skip.)
Starting Gmin stepping
Gmin = 10
Gmin = 1.07374
Gmin = 0.115292
Gmin = 0.0123794
Gmin = 0.00132923
Gmin = 0.000142725
Gmin = 1.5325e-005
Gmin = 1.6455e-006
Gmin = 1.76685e-007
Gmin = 1.89714e-008
Gmin = 2.03704e-009
Gmin = 2.18725e-010
vernier = 0.5
vernier = 0.666667
Gmin = 7.13399e-011
vernier = 0.888888
Gmin = 1.15517e-011
vernier = 1
Gmin = 1.24035e-012
Gmin = 1.33182e-013
Gmin = 0
Gmin stepping succeeded in finding the operating point.

Direct Newton iteration failed to find .op point.  (Use ".option noopiter" to skip.)
Starting Gmin stepping
Gmin = 10
Gmin = 1.07374
Gmin = 0.115292
Gmin = 0.0123794
Gmin = 0.00132923
Gmin = 0.000142725
Gmin = 1.5325e-005
Gmin = 1.6455e-006
Gmin = 1.76685e-007
Gmin = 1.89714e-008
Gmin = 2.03704e-009
Gmin = 2.18725e-010
vernier = 0.5
vernier = 0.666667
Gmin = 7.64356e-011
vernier = 0.888888
vernier = 1
Gmin = 1.15517e-011
Gmin = 1.24035e-012
Gmin = 1.33182e-013
Gmin = 0
Gmin stepping succeeded in finding the operating point.


Date: Sun May 08 12:57:39 2022
Total elapsed time: 0.404 seconds.

tnom = 27
temp = 27
method = trap
totiter = 14606
traniter = 0
tranpoints = 0
accept = 0
rejected = 0
matrix size = 61
fillins = 38
solver = Normal
Matrix Compiler1: 4.57 KB object code size  2.1/1.1/[0.8]
Matrix Compiler2: 5.57 KB object code size  0.9/1.1/[0.7]

